Version 4.1
SHEET 1 1808 680
WIRE 1200 48 400 48
WIRE -16 64 -144 64
WIRE 624 112 576 112
WIRE 768 112 688 112
WIRE 1040 112 960 112
WIRE 1200 112 1200 48
WIRE 1200 112 1120 112
WIRE -16 128 -16 64
WIRE 960 176 960 112
WIRE 1088 176 960 176
WIRE 688 224 688 176
WIRE 1088 224 1024 224
WIRE -144 240 -144 64
WIRE 400 240 400 48
WIRE 448 240 400 240
WIRE 576 240 576 112
WIRE 576 240 528 240
WIRE 656 240 576 240
WIRE 1200 240 1200 112
WIRE 1264 240 1200 240
WIRE 768 256 768 112
WIRE 768 256 720 256
WIRE 864 256 768 256
WIRE 960 256 960 176
WIRE 960 256 944 256
WIRE 656 272 608 272
WIRE 1088 272 1024 272
WIRE -16 288 -16 208
WIRE 64 288 -16 288
WIRE 608 320 608 272
WIRE 1088 320 1024 320
WIRE 688 336 688 288
WIRE 768 352 768 256
WIRE -16 368 -16 288
WIRE 1200 368 1200 240
WIRE 1200 368 1088 368
WIRE 1200 448 1200 368
WIRE -144 528 -144 320
WIRE -16 528 -16 448
WIRE -16 528 -144 528
WIRE 1200 560 1200 528
WIRE -16 592 -16 528
FLAG -16 592 0
FLAG 64 288 Vcm
FLAG -144 64 VDD
FLAG 608 320 Vcm
FLAG 768 352 Vramp
FLAG 1264 240 Vsqr
FLAG 688 176 VDD
FLAG 688 336 0
FLAG 1024 224 Vcm
FLAG 1024 272 VDD
FLAG 1024 320 0
FLAG 1200 640 0
SYMBOL voltage -144 224 R0
WINDOW 123 0 0 Left 0
WINDOW 39 0 0 Left 0
SYMATTR InstName VDD
SYMATTR Value 5
SYMBOL res -32 112 R0
SYMATTR InstName R4
SYMATTR Value 10K
SYMBOL res -32 352 R0
SYMATTR InstName R5
SYMATTR Value 10K
SYMBOL res 544 224 R90
WINDOW 0 0 56 VBottom 2
WINDOW 3 32 56 VTop 2
SYMATTR InstName R1
SYMATTR Value 10K
SYMBOL res 960 240 R90
WINDOW 0 -4 62 VBottom 2
WINDOW 3 32 56 VTop 2
SYMATTR InstName R2
SYMATTR Value 1K
SYMBOL cap 688 96 R90
WINDOW 0 0 32 VBottom 2
WINDOW 3 32 32 VTop 2
SYMATTR InstName C1
SYMATTR Value 2.2µF
SYMBOL res 1136 96 R90
WINDOW 0 0 57 VBottom 2
WINDOW 3 32 56 VTop 2
SYMATTR InstName R3
SYMATTR Value 5K
SYMBOL OpAmps\\UniversalOpAmp 688 256 R0
SYMATTR InstName U1
SYMATTR Value2 Avol=1Meg GBW=1Meg Vos=0
SYMBOL LM339 1072 256 R0
WINDOW 3 18 180 Bottom 2
SYMATTR Value LM339
SYMATTR InstName X1
SYMATTR Prefix X
SYMBOL voltage 1200 544 R0
SYMATTR InstName V1
SYMATTR Value 5
SYMBOL res 1184 432 R0
SYMATTR InstName R6
SYMATTR Value 1K
TEXT -184 616 Left 2 !.tran 0 0.3 0.14
TEXT 232 -64 Left 2 !.include C:\\Users\\maity\\OneDrive\\Documents\\LTspice\\sub\\LM339.sub
